LTspice 24.1.6 for Windows
Circuit: C:\users\ragnarok\Desktop\lab01-ie0311\NMOS_IV_C17530_sim.spi
Start Time: Sun Apr 27 21:57:36 2025
Ignoring BSIM parameter XL
Ignoring BSIM parameter XW
solver = Normal
Maximum thread count: 20
tnom = 27
temp = 27
method = trap
.OP point found by inspection.
.step vgs_var=0
.step vgs_var=1
.step vgs_var=2
.step vgs_var=3
.step vgs_var=4
.step vgs_var=5
Total elapsed time: 0.250 seconds.

Files loaded:
C:\users\ragnarok\Desktop\lab01-ie0311\NMOS_IV_C17530_sim.spi
Z:\home\ragnarok\Desktop\lab01-ie0311\spice.txt

