LTspice 24.1.6 for Windows
Circuit: C:\users\ragnarok\Desktop\lab01-ie0311\PMOS_IV_C17530_sim.spi
Start Time: Sun Apr 27 23:14:53 2025
Ignoring BSIM parameter XL
Ignoring BSIM parameter XW
solver = Normal
Maximum thread count: 20
tnom = 27
temp = 27
method = trap
.step vgs_var=-5
.step vgs_var=-4
.step vgs_var=-3
.step vgs_var=-2
.step vgs_var=-1
.step vgs_var=0
Total elapsed time: 0.272 seconds.

Files loaded:
C:\users\ragnarok\Desktop\lab01-ie0311\PMOS_IV_C17530_sim.spi
Z:\home\ragnarok\Desktop\lab01-ie0311\spice.txt

