LTspice 24.1.6 for Windows
Circuit: C:\users\ragnarok\Desktop\ie0311\lab04\TGATE\TGATE_10_10_C17530_sim.spi
Start Time: Mon Jun 23 00:40:13 2025
Ignoring BSIM parameter XL
Ignoring BSIM parameter XW
Ignoring BSIM parameter XL
Ignoring BSIM parameter XW
solver = Normal
Maximum thread count: 20
tnom = 27
temp = 27
method = trap
WARNING: Node xtgate_10@0:vdd is floating.

.OP point found by inspection.
Total elapsed time: 0.090 seconds.

Files loaded:
C:\users\ragnarok\Desktop\ie0311\lab04\TGATE\TGATE_10_10_C17530_sim.spi
Z:\home\ragnarok\Desktop\ie0311\lab04\spice.txt

