LTspice 24.1.6 for Windows
Circuit: C:\users\ragnarok\Desktop\ie0311\lab03\NOR\NOR2_DELAY_C17530_sim.spi
Start Time: Sun Jun  8 19:44:32 2025
Ignoring BSIM parameter XL
Ignoring BSIM parameter XW
Ignoring BSIM parameter XL
Ignoring BSIM parameter XW
solver = Normal
Maximum thread count: 20
tnom = 27
temp = 27
method = trap
Direct Newton iteration for .op point succeeded.
Total elapsed time: 0.163 seconds.

Files loaded:
C:\users\ragnarok\Desktop\ie0311\lab03\NOR\NOR2_DELAY_C17530_sim.spi
Z:\home\ragnarok\Desktop\ie0311\lab02\spice.txt

t_rise_fo0=7.20473735166e-11 FROM 8.30000000055e-09 TO 8.37204737407e-09
t_fall_fo0=2.78114706037e-10 FROM 5.50000001907e-10 TO 8.28114707944e-10
t_rise_fo4=1.97691367046e-10 FROM 8.30000000055e-09 TO 8.4976913676e-09
t_fall_fo4=7.1493759884e-10 FROM 5.50000001907e-10 TO 1.26493760075e-09
t_rise_fo16=5.92162543922e-10 FROM 8.30000000055e-09 TO 8.89216254447e-09
t_fall_fo16=2.17209204392e-09 FROM 5.50000001907e-10 TO 2.72209204582e-09
