LTspice 24.1.6 for Windows
Circuit: C:\users\ragnarok\Desktop\ie0311\lab04\MUXES\MUXES2_1_C17530_sim.spi
Start Time: Sat Jun 28 00:30:15 2025
Ignoring BSIM parameter XL
Ignoring BSIM parameter XW
Ignoring BSIM parameter XL
Ignoring BSIM parameter XW
solver = Normal
Maximum thread count: 20
tnom = 27
temp = 27
method = trap
Direct Newton iteration for .op point succeeded.
Total elapsed time: 0.107 seconds.

Files loaded:
C:\users\ragnarok\Desktop\ie0311\lab04\MUXES\MUXES2_1_C17530_sim.spi
Z:\home\ragnarok\Desktop\ie0311\lab04\spice.txt

t_rise_nands=2.05164928339e-10 FROM 6.05000000187e-09 TO 6.25516493021e-09
t_fall_nands=1.97456429824e-10 FROM 8.14999999938e-09 TO 8.34745642921e-09
t_rise_tgates=4.56344989308e-11 FROM 6.05000000187e-09 TO 6.0956345008e-09
t_fall_tgates=4.94884403562e-11 FROM 8.14999999938e-09 TO 8.19948843974e-09
