LTspice 24.1.6 for Windows
Circuit: C:\users\ragnarok\Desktop\ie0311\lab04\FLIFLOPD\FF_D_POS_C17530_sim.spi
Start Time: Sun Jun 29 15:17:58 2025
Ignoring BSIM parameter XL
Ignoring BSIM parameter XW
Ignoring BSIM parameter XL
Ignoring BSIM parameter XW
solver = Normal
Maximum thread count: 20
tnom = 27
temp = 27
method = trap
Direct Newton iteration for .op point succeeded.
Total elapsed time: 0.106 seconds.

Files loaded:
C:\users\ragnarok\Desktop\ie0311\lab04\FLIFLOPD\FF_D_POS_C17530_sim.spi
Z:\home\ragnarok\Desktop\ie0311\lab04\spice.txt

