LTspice 24.1.6 for Windows
Circuit: C:\users\ragnarok\Desktop\ie0311\lab03\NAND\NAND2_VOUT_VIN_C17530_sim.spi
Start Time: Sun Jun  8 14:09:46 2025
Ignoring BSIM parameter XL
Ignoring BSIM parameter XW
Ignoring BSIM parameter XL
Ignoring BSIM parameter XW
solver = Normal
Maximum thread count: 20
tnom = 27
temp = 27
method = trap
.step 
Total elapsed time: 0.129 seconds.

Files loaded:
C:\users\ragnarok\Desktop\ie0311\lab03\NAND\NAND2_VOUT_VIN_C17530_sim.spi
Z:\home\ragnarok\Desktop\ie0311\lab03\spice.txt

